! HF-3c opt
* xyz 0 1
C     0.00000000   0.00000000   0.00000000
S     1.83000000   0.00000000   0.00000000
S     2.15069100   2.02476100   0.00000000
C     0.41025700   2.59026300   0.00000000
H    -0.35486900   0.60578000  -0.83378500
H    -0.35486900   0.60578000   0.83378500
H    -0.11444000   2.12379200   0.83378600
H    -0.11443900   2.12379200  -0.83378500
C     0.38338100   4.13002800   0.00000100
H    -0.65327000   4.46685600   0.00000100
N     1.19187400   4.62279800  -1.12446200
C     1.23037400   4.64626300   1.17800900
O     1.77231200   3.89472300   1.87592800
O     1.36623300   6.05257500   1.39875500
H     1.63903800   3.96800900  -1.75007800
H     1.28783000   5.61606800  -1.28037300
H     1.92259700   6.19591300   2.16785300
C    -0.50137500  -1.45609900  -0.00000000
H    -1.59137500  -1.45609900  -0.00000000
N     0.11527300  -2.17458900   1.12446300
C     0.14463700  -2.20880300  -1.17800900
O     0.89229000  -1.66151400  -1.87592700
O    -0.16072800  -3.58826800  -1.39875400
H     0.74289200  -1.69002900   1.75007900
H    -0.10040400  -3.14889700   1.28037400
H    -0.69150600  -4.29544800  -1.02489400
*
%geom
Constraints
{D 3 2 1 0 C}
end
end
