! HF-3c opt
* xyz 0 1
C     0.00000000   0.00000000   0.00000000
S     1.83000000   0.00000000   0.00000000
S     2.15069100   2.02476100   0.00000000
C     1.04795900   2.48926000   1.38460200
H    -0.35486900   0.60578000  -0.83378500
H    -0.35486900   0.60578000   0.83378500
H     1.31121100   1.89799100   2.26164200
H     0.04950500   2.09782600   1.18974800
C     1.11543200   4.01408200   1.58945700
H     0.45861400   4.29075100   2.41416500
N     0.81860300   4.68191800   0.31400100
C     2.58706200   4.43138500   1.76768300
O     3.42672500   3.63269000   1.71619900
O     2.92021500   5.80644800   1.97531100
H     0.60045400   4.13250500  -0.50493400
H     0.81797800   5.69048500   0.26021100
H     3.87252300   5.88707400   2.06590100
C    -0.50137500  -1.45609900  -0.00000000
H    -1.59137500  -1.45609900  -0.00000000
N     0.11527300  -2.17458900   1.12446300
C     0.14463700  -2.20880300  -1.17800900
O     0.89229000  -1.66151400  -1.87592700
O    -0.16072800  -3.58826800  -1.39875400
H     0.74289200  -1.69002900   1.75007900
H    -0.10040400  -3.14889700   1.28037400
H    -0.69150600  -4.29544800  -1.02489400
*
%geom
Constraints
{D 3 2 1 0 C}
end
end
