! HF-3c opt
* xyz 0 1
N     2.02508700  -1.15553500   0.85067000
C     1.02708700  -1.55453500   1.83867000
C     0.84008700  -3.07353500   1.88467000
O     0.50608700  -3.63953500   2.92867000
C    -0.31191300  -0.81953500   1.58867000
S    -1.16391300  -1.27653500   0.04967000
N     0.64508700   2.10446500   0.31667000
C     0.24108700   2.41946500  -1.02333000
C    -0.35091300   3.82346500  -1.08833000
O    -0.59391300   4.32846500  -2.17233000
C    -0.80391300   1.42546500  -1.47733000
S    -0.19891300  -0.31353500  -1.58233000
O     1.03365000  -3.78499000   0.81398600
O    -0.59473700   4.47749100   0.00839200
H     2.49224400  -1.84991400   0.30331100
H     2.24153100  -0.18785300   0.72127700
H     0.50465600   2.76908300   1.05053800
H     1.05344300   1.21449300   0.51963800
H     1.32186200  -1.24472300   2.74261900
H     1.03798000   2.37394000  -1.62573300
H    -0.90725500  -1.02797900   2.36463300
H    -0.10714300   0.15908100   1.56919400
H    -1.11815300   1.71598000  -2.38113000
H    -1.55937600   1.46843200  -0.82354900
H     1.29674600  -3.17879800   0.06344500
H    -1.54966000   4.77432700   0.00498800
*
%geom
Constraints
{D 2 1 4 5 C}
{D 1 4 5 11 C}
{D 4 5 11 10 C}
{D 11 10 7 8 C}
{D 5 11 10 7 C}
end
end
