! HF-3c opt
* xyz 0 1
N    -0.37306200  -0.51997200  -2.81365900
C    -1.33406200   0.06902800  -1.82665900
C    -0.60506200   0.92802800  -0.81865900
O    -1.12706200   1.90602800  -0.32365900
C    -1.94606200  -1.12297200  -1.06465900
S    -0.79406200  -1.68997200   0.25134100
N     0.56593800   0.49602800  -0.44165900
C     1.31093800   1.19102800   0.62034100
C     2.81893800   1.10802800   0.34434100
O     3.31393800   0.07102800  -0.06065900
C     0.91593800   0.37102800   1.86434100
S    -0.81606200  -0.23897200   1.69234100
H     0.60388100  -0.31911600  -2.74128100
H    -0.70857000  -1.11396600  -3.54482600
H     0.66255000  -0.42771000  -0.07102000
H     1.31618000   0.44531200  -1.10087400
H    -1.99933200   0.63250100  -2.31646900
H     1.03686900   2.15242700   0.64480000
H    -2.80795200  -0.84067600  -0.64340500
H    -2.10859200  -1.87635700  -1.70183600
H     3.23683200   1.99282100   0.55051200
H     0.97825700   0.94900000   2.67801500
H     1.52977400  -0.41315300   1.95525300
*
%geom
Constraints
{D 2 1 4 5 C}
{D 1 4 5 11 C}
{D 4 5 11 10 C}
{D 11 10 7 8 C}
{D 5 11 10 7 C}
end
end
