! HF-3c opt
* xyz 0 1
C     0.00000000   0.00000000   0.00000000
S     1.83000000   0.00000000   0.00000000
S     2.15069100   2.02476100   0.00000000
C     1.73342561   2.38069371  -1.74587889
H    -0.35486900   0.60578000  -0.83378500
H    -0.35486900   0.60578000   0.83378500
H     0.73923069   1.98858335  -1.96017567
H     2.33014804   1.73660703  -2.39177513
C     1.90231174   3.88945233  -2.00418829
H     1.65378012   4.10145411  -3.04408737
N     3.25543989   4.29595968  -1.59834890
C     1.07215613   4.67132258  -0.96924153
O     0.47034403   4.10093467  -0.15801985
O     1.06022917   6.10104256  -0.99499412
H     3.90115879   3.60972262  -1.23472182
H     3.54450649   5.25864366  -1.69724234
H     0.49699048   6.42170852  -0.28680614
C    -0.50137500  -1.45609900  -0.00000000
H    -1.59137500  -1.45609900  -0.00000000
N     0.11527300  -2.17458900   1.12446300
C     0.14463700  -2.20880300  -1.17800900
O     0.89229000  -1.66151400  -1.87592700
O    -0.16072800  -3.58826800  -1.39875400
H     0.74289200  -1.69002900   1.75007900
H    -0.10040400  -3.14889700   1.28037400
H    -0.69150600  -4.29544800  -1.02489400
*
%geom
Constraints
{D 0 1 2 3 C}
end
end
