! HF-3c opt
* xyz 0 1
C     0.00000000   0.00000000   0.00000000
S     1.83000000   0.00000000   0.00000000
S     2.15069100   2.02476100   0.00000000
C     2.80605500   2.21080500   1.69846600
H    -0.35486900   0.60578000  -0.83378500
H    -0.35486900   0.60578000   0.83378500
H     3.64541100   1.52828900   1.83170700
H     2.09769900   1.77342300   2.40204900
C     3.13364100   3.69442900   1.94975700
H     3.52399400   3.80524200   2.96141100
N     1.94220900   4.50395600   1.65640100
C     4.07214900   4.19617000   0.83662700
O     4.39651400   3.47909000  -0.01553700
O     4.52662800   5.55201700   0.84176200
H     1.08753400   4.05535900   1.35909800
H     1.97379600   5.50742200   1.76667900
H     5.09815100   5.69295400   0.08341100
C    -0.50137500  -1.45609900  -0.00000000
H    -1.59137500  -1.45609900  -0.00000000
N     0.11527300  -2.17458900   1.12446300
C     0.14463700  -2.20880300  -1.17800900
O     0.89229000  -1.66151400  -1.87592700
O    -0.16072800  -3.58826800  -1.39875400
H     0.74289200  -1.69002900   1.75007900
H    -0.10040400  -3.14889700   1.28037400
H    -0.69150600  -4.29544800  -1.02489400
*
%geom
Constraints
{D 3 2 1 0 C}
end
end
