! HF-3c opt
* xyz 0 1
C     0.00000000   0.00000000   0.00000000
S     1.83000000   0.00000000   0.00000000
S     2.15069100   2.02476100   0.00000000
C     0.51791900   2.57321100   0.61819100
H    -0.35486900   0.60578000  -0.83378500
H    -0.35486900   0.60578000   0.83378500
H     0.30140500   2.05792800   1.55398300
H    -0.26191600   2.14715000  -0.01302100
C     0.50697100   4.11045300   0.70965400
H    -0.46555300   4.43712500   1.07786600
N     0.89263800   4.67019200  -0.59374700
C     1.70688700   4.57079100   1.55811800
O     2.44570200   3.78806900   1.99066600
O     1.92242700   5.96448200   1.79490000
H     1.09605400   4.05400900  -1.36772300
H     0.93953600   5.67123200  -0.71952600
H     2.70720400   6.07164300   2.33734000
C    -0.50137500  -1.45609900  -0.00000000
H    -1.59137500  -1.45609900  -0.00000000
N     0.11527300  -2.17458900   1.12446300
C     0.14463700  -2.20880300  -1.17800900
O     0.89229000  -1.66151400  -1.87592700
O    -0.16072800  -3.58826800  -1.39875400
H     0.74289200  -1.69002900   1.75007900
H    -0.10040400  -3.14889700   1.28037400
H    -0.69150600  -4.29544800  -1.02489400
*
%geom
Constraints
{D 3 2 1 0 C}
end
end
