! HF-3c opt
* xyz 0 1
C     0.00000000   0.00000000   0.00000000
S     1.83000000   0.00000000   0.00000000
S     2.15069100   2.02476100   0.00000000
C     3.95357000   2.02905700   0.31386400
H    -0.35486900   0.60578000  -0.83378500
H    -0.35486900   0.60578000   0.83378500
H     4.44476000   1.40168400  -0.42993500
H     4.15875500   1.44698400   1.21230100
C     4.45093200   3.48579100   0.36030100
H     5.52477800   3.48834900   0.54724700
N     3.65225300   4.23311200   1.34240100
C     4.01830100   4.20469900  -0.93105600
O     3.40014500   3.63689900  -1.73173500
O     4.36023900   5.57837100  -1.13354600
H     2.92549800   3.76425300   1.86403300
H     3.84028100   5.21179800   1.50646900
H     4.01521500   5.86447600  -1.98248900
C    -0.50137500  -1.45609900  -0.00000000
H    -1.59137500  -1.45609900  -0.00000000
N     0.11527300  -2.17458900   1.12446300
C     0.14463700  -2.20880300  -1.17800900
O     0.89229000  -1.66151400  -1.87592700
O    -0.16072800  -3.58826800  -1.39875400
H     0.74289200  -1.69002900   1.75007900
H    -0.10040400  -3.14889700   1.28037400
H    -0.69150600  -4.29544800  -1.02489400
*
%geom
Constraints
{D 3 2 1 0 C}
end
end
