! HF-3c opt
* xyz 0 1
C     0.00000000   0.00000000   0.00000000
S     1.83000000   0.00000000   0.00000000
S     2.15069100   2.02476100   0.00000000
C     0.82791900   2.52411100   1.16181900
H    -0.35486900   0.60578000  -0.83378500
H    -0.35486900   0.60578000   0.83378500
H     0.93546000   1.95750400   2.08674700
H    -0.12323700   2.12518500   0.80931300
C     0.86283600   4.05408900   1.33371300
H     0.07495600   4.35151600   2.02572500
N     0.79072800   4.68633300   0.00858300
C     2.28306800   4.47953300   1.75029500
O     3.11724200   3.68170700   1.86530000
O     2.57890100   5.86050700   1.97455400
H     0.71497900   4.11436600  -0.82040100
H     0.80170500   5.69306300  -0.07189400
H     3.50174800   5.94580000   2.22490900
C    -0.50137500  -1.45609900  -0.00000000
H    -1.59137500  -1.45609900  -0.00000000
N     0.11527300  -2.17458900   1.12446300
C     0.14463700  -2.20880300  -1.17800900
O     0.89229000  -1.66151400  -1.87592700
O    -0.16072800  -3.58826800  -1.39875400
H     0.74289200  -1.69002900   1.75007900
H    -0.10040400  -3.14889700   1.28037400
H    -0.69150600  -4.29544800  -1.02489400
*
%geom
Constraints
{D 3 2 1 0 C}
end
end
