! HF-3c opt
* xyz 0 1
C     0.00000000   0.00000000   0.00000000
S     1.83000000   0.00000000   0.00000000
S     2.15069100   2.02476100   0.00000000
C     1.30286600   2.44888700  -1.56531500
H    -0.35486900   0.60578000  -0.83378500
H    -0.35486900   0.60578000   0.83378500
H     0.28487100   2.06054700  -1.53403300
H     1.71124900   1.83463100  -2.36781800
C     1.40804843   3.96773654  -1.79690609
H     0.90306136   4.22035731  -2.72925111
N     2.82208479   4.36459787  -1.73433962
C     0.87416874   4.70268025  -0.55335436
O     0.49673438   4.09675346   0.36097599
O     0.86358442   6.13218829  -0.51729329
H     3.53568104   3.66761094  -1.57595303
H     3.08133137   5.33200494  -1.86478173
H     0.50179123   6.42094812   0.32373201
C    -0.50137500  -1.45609900  -0.00000000
H    -1.59137500  -1.45609900  -0.00000000
N     0.11527300  -2.17458900   1.12446300
C     0.14463700  -2.20880300  -1.17800900
O     0.89229000  -1.66151400  -1.87592700
O    -0.16072800  -3.58826800  -1.39875400
H     0.74289200  -1.69002900   1.75007900
H    -0.10040400  -3.14889700   1.28037400
H    -0.69150600  -4.29544800  -1.02489400
*
%geom
Constraints
{D 8 3 2 1 C}
end
end
