! HF-3c engrad
* xyz 0 1
C    -0.03456900   0.01545900  -0.00000000
S     1.84770400  -0.05470900  -0.00000000
S     2.13298700   2.07947000   0.00000000
C     4.01526000   2.00930200   0.00000000
F    -0.46346700  -1.25939100  -0.00000000
F    -0.53161000   0.63586200  -1.08357900
F    -0.53160900   0.63586100   1.08357900
F     4.44415800   3.28415200  -0.00000000
F     4.51230000   1.38889900  -1.08357900
F     4.51230100   1.38890000   1.08357900
*
