! HF-3c opt
* xyz 0 1
C     0.00000000   0.00000000   0.00000000
S     1.83000000   0.00000000   0.00000000
S     2.15069100   2.02476100   0.00000000
C     2.19547400   2.30751200  -1.80747000
H    -0.35486900  -1.03061540  -0.00000011
H    -0.35486900   0.60578003  -0.83378494
H    -0.35486900   0.60577993   0.83378516
H     2.36339700   3.36773600  -1.99674600
H     1.28704000   1.90181900  -2.25273500
H     2.93408000   1.64095300  -2.25273500
*
%geom
Constraints
{D 4 0 1 2 C}
end
end
