! HF-3c opt
* xyz 0 1
C     0.00000000   0.00000000   0.00000000
S     1.83000000   0.00000000   0.00000000
S     2.15069100   2.02476100   0.00000000
C     0.64943100   2.55238100   0.90373500
H    -0.35486900   0.60578000  -0.83378500
H    -0.35486900   0.60578000   0.83378500
H     0.59541400   2.01136200   1.84844700
H    -0.22810600   2.14179500   0.40428800
C     0.65794100   4.08654200   1.03744500
H    -0.23625100   4.40080700   1.57573500
N     0.81565900   4.68238500  -0.29709600
C     1.98667500   4.52647700   1.67972600
O     2.78688900   3.73403000   1.95772500
O     2.24290200   5.91372400   1.91380200
H     0.88186900   4.08793300  -1.11094000
H     0.84263900   5.68657900  -0.40181500
H     3.10933300   6.00795200   2.31631500
C    -0.50137500  -1.45609900  -0.00000000
H    -1.59137500  -1.45609900  -0.00000000
N     0.11527300  -2.17458900   1.12446300
C     0.14463700  -2.20880300  -1.17800900
O     0.89229000  -1.66151400  -1.87592700
O    -0.16072800  -3.58826800  -1.39875400
H     0.74289200  -1.69002900   1.75007900
H    -0.10040400  -3.14889700   1.28037400
H    -0.69150600  -4.29544800  -1.02489400
*
%geom
Constraints
{D 3 2 1 0 C}
end
end
