! HF-3c opt
* xyz 0 1
C     0.00000000   0.00000000   0.00000000
S     1.83000000   0.00000000   0.00000000
S     2.15069100   2.02476100   0.00000000
C     3.98069100   2.02476100   0.00000000
H    -0.35486900   0.60578000  -0.83378500
H    -0.35486900   0.60578000   0.83378500
H     4.33556000   1.41898100  -0.83378500
H     4.33556000   1.41898100   0.83378500
C     4.48206600   3.48086000   0.00000000
H     5.57206600   3.48086000   0.00000000
N     3.86541700   4.19935000   1.12446300
C     3.83605300   4.23356400  -1.17800900
O     3.08840100   3.68627500  -1.87592700
O     4.14141900   5.61302900  -1.39875400
H     3.23779900   3.71479000   1.75007900
H     4.08109500   5.17365800   1.28037400
H     3.65657700   5.92127800  -2.16785200
C    -0.50137500  -1.45609900  -0.00000000
H    -1.59137500  -1.45609900  -0.00000000
N     0.11527300  -2.17458900   1.12446300
C     0.14463700  -2.20880300  -1.17800900
O     0.89229000  -1.66151400  -1.87592700
O    -0.16072800  -3.58826800  -1.39875400
H     0.74289200  -1.69002900   1.75007900
H    -0.10040400  -3.14889700   1.28037400
H    -0.69150600  -4.29544800  -1.02489400
*
%geom
Constraints
{D 3 2 1 0 C}
end
end
