! HF-3c opt
* xyz 0 1
C     0.00000000   0.00000000   0.00000000
S     1.83000000   0.00000000   0.00000000
S     2.15069100   2.02476100   0.00000000
C     0.43737900   2.58596700   0.31386400
H    -0.35486900   0.60578000  -0.83378500
H    -0.35486900   0.60578000   0.83378500
H     0.06236600   2.09578900   1.21230200
H    -0.22363900   2.14108700  -0.42993500
C     0.41451500   4.12509600   0.36030100
H    -0.60598200   4.45936600   0.54724800
N     1.01932600   4.65012700  -0.87235800
C     1.45220800   4.61112800   1.38916800
O     2.10405000   3.84218100   1.96312100
O     1.62721400   6.01124000   1.62146100
H     1.35102600   4.01362600  -1.58294900
H     1.08945100   5.64748800  -1.01537600
H     2.30757800   6.13493800   2.28734600
C    -0.50137500  -1.45609900  -0.00000000
H    -1.59137500  -1.45609900  -0.00000000
N     0.11527300  -2.17458900   1.12446300
C     0.14463700  -2.20880300  -1.17800900
O     0.89229000  -1.66151400  -1.87592700
O    -0.16072800  -3.58826800  -1.39875400
H     0.74289200  -1.69002900   1.75007900
H    -0.10040400  -3.14889700   1.28037400
H    -0.69150600  -4.29544800  -1.02489400
*
%geom
Constraints
{D 3 2 1 0 C}
end
end
