! HF-3c opt
* xyz 0 1
C     0.00000000   0.00000000   0.00000000
S     1.83000000   0.00000000   0.00000000
S     2.15069100   2.02476100   0.00000000
C     3.34299000   2.12576300   1.38460200
H    -0.35486900   0.60578000  -0.83378500
H    -0.35486900   0.60578000   0.83378500
H     4.17161600   1.44494700   1.18974800
H     2.90991000   1.64478200   2.26164200
C     3.75001600   3.59680400   1.58945600
H     4.46018300   3.65696400   2.41416400
N     2.53712400   4.40973100   1.75958200
C     4.26196000   4.16610700   0.25326400
O     4.27269200   3.49870200  -0.69544800
O     4.70407000   5.52391300   0.17710600
H     1.62811800   3.96973800   1.74492300
H     2.61345400   5.40610900   1.90622700
H     4.98710500   5.71054200  -0.72103700
C    -0.50137500  -1.45609900  -0.00000000
H    -1.59137500  -1.45609900  -0.00000000
N     0.11527300  -2.17458900   1.12446300
C     0.14463700  -2.20880300  -1.17800900
O     0.89229000  -1.66151400  -1.87592700
O    -0.16072800  -3.58826800  -1.39875400
H     0.74289200  -1.69002900   1.75007900
H    -0.10040400  -3.14889700   1.28037400
H    -0.69150600  -4.29544800  -1.02489400
*
%geom
Constraints
{D 3 2 1 0 C}
end
end
