! HF-3c opt
* xyz 0 1
C     0.00000000   0.00000000   0.00000000
S     1.83000000   0.00000000   0.00000000
S     2.15069100   2.02476100   0.00000000
C     3.74151800   2.06264200   0.90373500
H    -0.35486900   0.60578000  -0.83378500
H    -0.35486900   0.60578000   0.83378500
H     4.44922700   1.40097700   0.40428800
H     3.62570700   1.53141000   1.84844700
C     4.20750600   3.52434600   1.03744400
H     5.15504700   3.54690800   1.57573400
N     3.13101500   4.31566800   1.65053100
C     4.24325900   4.16906900  -0.36064500
O     3.92665600   3.55350800  -1.29147700
O     4.64628300   5.53306600  -0.50891100
H     2.26643600   3.86863800   1.92028600
H     3.26167700   5.30344000   1.81585800
H     4.61100400   5.77011200  -1.43851600
C    -0.50137500  -1.45609900  -0.00000000
H    -1.59137500  -1.45609900  -0.00000000
N     0.11527300  -2.17458900   1.12446300
C     0.14463700  -2.20880300  -1.17800900
O     0.89229000  -1.66151400  -1.87592700
O    -0.16072800  -3.58826800  -1.39875400
H     0.74289200  -1.69002900   1.75007900
H    -0.10040400  -3.14889700   1.28037400
H    -0.69150600  -4.29544800  -1.02489400
*
%geom
Constraints
{D 3 2 1 0 C}
end
end
