! HF-3c opt
* xyz 0 1
C     0.71941682  -0.22654653   1.00060620
S     2.08809810  -0.11586969  -0.23545051
S     2.47814030   1.92329813  -0.23412469
C     0.99964695   2.56011021  -1.14200647
H     0.14182571   0.69846735   0.99817514
H     1.11887036  -0.38463267   2.00085007
H     0.14587353   1.90802186  -0.95100448
H     1.19033223   2.58281600  -2.21418268
C     0.65722827   3.99493839  -0.65922378
H    -0.24603677   4.30739613  -1.19693400
N     1.72445681   4.94062989  -0.95377036
C     0.23540652   3.94782256   0.85738410
O    -0.25221130   3.00000760   1.42675233
O     0.46833954   5.14395535   1.48418777
H     2.64598946   4.59116812  -0.72422030
H     1.56137180   5.84731296  -0.52982780
H     0.17613451   5.09767081   2.41844797
C    -0.23220044  -1.39681704   0.61700440
H    -1.03843433  -1.40975069   1.35551666
N     0.35987136  -2.72308389   0.56201508
C    -0.92212301  -1.09219467  -0.77869346
O    -1.25418987   0.01267366  -1.13141756
O    -1.14376144  -2.22400407  -1.48855651
H     1.32830984  -2.75488078   0.27552788
H     0.17864140  -3.29149565   1.37625478
H    -0.68659205  -2.94935917  -0.99034518
*
%geom
Constraints
end
end
