! HF-3c opt
* xyz 0 1
C     0.00000000   0.00000000   0.00000000
S     1.83000000   0.00000000   0.00000000
S     2.15069100   2.02476100   0.00000000
C     1.30286600   2.44888700   1.56531500
H    -0.35486900   0.60578000  -0.83378500
H    -0.35486900   0.60578000   0.83378500
H     1.71125000   1.83463100   2.36781900
H     0.28487100   2.06054700   1.53403300
C     1.40805300   3.96773500   1.79690600
H     0.90306500   4.22035700   2.72925200
N     0.89843700   4.66927400   0.60987800
C     2.88942000   4.38349600   1.73136100
O     3.70593400   3.58846700   1.51495100
O     3.25647300   5.75319000   1.91604800
H     0.54177600   4.14179800  -0.17412600
H     0.89096300   5.67892600   0.58441000
H     4.21039400   5.83356100   1.84412200
C    -0.50137500  -1.45609900  -0.00000000
H    -1.59137500  -1.45609900  -0.00000000
N     0.11527300  -2.17458900   1.12446300
C     0.14463700  -2.20880300  -1.17800900
O     0.89229000  -1.66151400  -1.87592700
O    -0.16072800  -3.58826800  -1.39875400
H     0.74289200  -1.69002900   1.75007900
H    -0.10040400  -3.14889700   1.28037400
H    -0.69150600  -4.29544800  -1.02489400
*
%geom
Constraints
{D 3 2 1 0 C}
end
end
