! HF-3c opt
* xyz 0 1
C     0.00000000   0.00000000   0.00000000
S     1.83000000   0.00000000   0.00000000
S     2.15069100   2.02476100   0.00000000
C     2.19547400   2.30751200   1.80747000
H    -0.35486900   0.60578000  -0.83378500
H    -0.35486900   0.60578000   0.83378500
H     2.93408100   1.64095300   2.25273500
H     1.28704000   1.90181900   2.25273500
C     2.43272400   3.80544300   2.07488800
H     2.45939900   3.97385700   3.15146800
N     1.41802800   4.58697900   1.35343500
C     3.69672000   4.25563200   1.31908000
O     4.28318900   3.49703900   0.66624800
O     4.13536000   5.61398800   1.40489000
H     0.70988700   4.11517200   0.80934500
H     1.41985400   5.59515700   1.41404200
H     4.93075100   5.71946700   0.87779800
C    -0.50137500  -1.45609900  -0.00000000
H    -1.59137500  -1.45609900  -0.00000000
N     0.11527300  -2.17458900   1.12446300
C     0.14463700  -2.20880300  -1.17800900
O     0.89229000  -1.66151400  -1.87592700
O    -0.16072800  -3.58826800  -1.39875400
H     0.74289200  -1.69002900   1.75007900
H    -0.10040400  -3.14889700   1.28037400
H    -0.69150600  -4.29544800  -1.02489400
*
%geom
Constraints
{D 3 2 1 0 C}
end
end
